#!/sbin/sh
##########################################################################################
#
# Magisk Module Template Install Script
# by topjohnwu
# 
##########################################################################################

# Detect whether in boot mode
ps | grep zygote | grep -v grep >/dev/null && BOOTMODE=true || BOOTMODE=false
$BOOTMODE || ps -A 2>/dev/null | grep zygote | grep -v grep >/dev/null && BOOTMODE=true

# This path should work in any cases
TMPDIR=/dev/tmp
MOUNTPATH=/magisk
IMG=/data/magisk.img
if $BOOTMODE; then
  MOUNTPATH=/dev/magisk_merge
  IMG=/data/magisk_merge.img
fi
INSTALLER=$TMPDIR/install
MAGISKBIN=/data/magisk

# Default permissions
umask 022

##########################################################################################
# Flashable update-binary preparation
##########################################################################################

OUTFD=$2
ZIP=$3

ui_print() {
  if $BOOTMODE; then
    echo "$1"
  else 
    echo -n -e "ui_print $1\n" >> /proc/self/fd/$OUTFD
    echo -n -e "ui_print\n" >> /proc/self/fd/$OUTFD
  fi
}

require_new_magisk() {
  ui_print "***********************************"
  ui_print "! $MAGISKBIN isn't setup properly!"
  ui_print "! Please install Magisk v13.1+!"
  ui_print "***********************************"
  exit 1
}

###################################################

Install_for_ARM() {

ui_print "- Preparing for ARM Install"

my_md5="48d569faa12728ba9464e397b692bc12" 
his_md5=`md5sum /system/bin/dnsmasq 2>/dev/null | awk '{ print $1 }' 2>/dev/null`

if [ "$his_md5" = "$my_md5" ]; then
  busybox cp -af $INSTALLER/common/dnsmasq.CBBAK $MODPATH/system/bin/dnsmasq
fi

if [ ! -f /system/bin/dnsmasq ]; then
  if [ ! "`busybox dd if=/system/bin/dnsmasq skip=1 bs=1 count=3`" = "ELF" ]; then
    cp -af $INSTALLER/common/dnsmasq.CBBAK $MODPATH/system/bin/dnsmasq
  fi
fi

RNGD=/system/bin/rngd
XRNGD=/system/xbin/rngd
QRNGD=/system/bin/qrngd
XQRNGD=/system/xbin/qrngd
for SEED in $RNGD $XRNGD $QRNGD $XQRNGD; do
  if [ -f $SEED ]; then
    mktouch $MODPATH$SEED
  fi
done

rm -af $INSTALLER/common/CrossBreeder/zzCrossBreeder/ENTROPY

}

Install_for_X86() {

ui_print "- Preparing for X86 Install"

rm -rf $MODPATH/system/bin
rm -rf $MODPATH/system/etc/CrossBreeder/dnrd_root
rm -af $MODPATH/system/xbin/haveged
rm -af $MODPATH/system/etc/CrossBreeder/CHECK_PROCS
rm -af $MODPATH/system/etc/CrossBreeder/CB_RunHaveged
rm -af $MODPATH/system/etc/CrossBreeder/CB_RunDNSMasq
rm -af $MODPATH/system/etc/CrossBreeder/dnrd.udp.10053
rm -af $MODPATH/system/etc/CrossBreeder/zzCHECK_NET_DNS
rm -af $MODPATH/system/etc/CrossBreeder/zzCrossBreeder
rm -af $MODPATH/system/etc/CrossBreeder/punchmod
rm -rf $MODPATH/system/etc/CrossBreeder/dnrd_root
rm -rf $MODPATH/system/lib
rm -af $MODPATH/system/etc/CrossBreeder/ENTROPY_FEED_FREQUENCY_SECS
rm -af $MODPATH/system/etc/CrossBreeder/IRQ_FLUSH_FREQUENCY_MINUTES
cp -af $INSTALLER/common/zzCHECK_NET_DNS_X86 $MODPATH/system/etc/CrossBreeder/zzCHECK_NET_DNS
cp -af $INSTALLER/common/zzCrossBreeder_X86 $MODPATH/system/etc/CrossBreeder/zzCrossBreeder
cp -af $INSTALLER/common/CHECK_PROCS_X86 $MODPATH/system/etc/CrossBreeder/CHECK_PROCS
rm -af $INSTALLER/common/CrossBreeder/zzCrossBreeder/HAVEGED
rm -af $INSTALLER/common/CrossBreeder/zzCrossBreeder/PUNCHMOD

}

###################################################

# Mount /data to access MAGISKBIN
mount /data 2>/dev/null

# MAGISKBIN must exist, binaries and utility functions are placed there
[ -d $MAGISKBIN -a -f $MAGISKBIN/magisk -a -f $MAGISKBIN/util_functions.sh ] || require_new_magisk

# Load utility fuctions
. $MAGISKBIN/util_functions.sh
[ ! -z $SCRIPT_VERSION -a $SCRIPT_VERSION -ge 1310 ] || require_new_magisk
get_outfd

rm -rf $TMPDIR 2>/dev/null
mkdir -p $INSTALLER
unzip -o "$ZIP" config.sh -d $INSTALLER 2>/dev/null

##########################################################################################
# Prepare
##########################################################################################

[ ! -f $INSTALLER/config.sh ] && abort "! Unable to extract zip file!"

. $INSTALLER/config.sh

MODPATH=$MOUNTPATH/$MODID

# Print mod name
print_modname

# Please leave this message in your flashable zip for credits :)
ui_print "******************************"
ui_print "Powered by Magisk (@topjohnwu)"
ui_print "******************************"

ui_print "- Mounting /system, /vendor, /data, /cache"
mount -o ro /system 2>/dev/null
mount -o ro /vendor 2>/dev/null
mount /data 2>/dev/null
mount /cache 2>/dev/null

[ ! -f /data/magisk.img ] && abort "! Magisk is not installed"
$BOOTMODE && ! is_mounted /magisk && abort "! Magisk is not activated!"
[ ! -f /system/build.prop ] && abort "! /system could not be mounted!"

# Detect version and architecture
api_level_arch_detect

# You can get the Android API version from $API, the CPU architecture from $ARCH
# Useful if you are creating Android version / platform dependent mods

##########################################################################################
# Install
##########################################################################################

ui_print "- Extracting module files"
unzip -o "$ZIP" -d $INSTALLER 2>/dev/null
request_size_check $INSTALLER

# We're going to use magisk binary now, require some recovery fixes
$BOOTMODE || recovery_actions

if [ -f "$IMG" ]; then
  ui_print "- $IMG detected!"
  image_size_check $IMG
  if [ "$reqSizeM" -gt "$curFreeM" ]; then
    newSizeM=$(((reqSizeM + curUsedM) / 32 * 32 + 64))
    ui_print "- Resizing $IMG to ${newSizeM}M"
    $MAGISKBIN/magisk --resizeimg $IMG $newSizeM
  fi
else
  newSizeM=$((reqSizeM / 32 * 32 + 64));
  ui_print "- Creating $IMG with size ${newSizeM}M"
  $MAGISKBIN/magisk --createimg $IMG $newSizeM
fi

ui_print "- Mounting $IMG to $MOUNTPATH"
MAGISKLOOP=`$MAGISKBIN/magisk --mountimg $IMG $MOUNTPATH`
is_mounted $MOUNTPATH || abort"! $IMG mount failed..."

###################################################

# Delete Mod
if [ -d $MODPATH ]; then
  ui_print "- Removing files"
  rm -rf $MODPATH
  rm -rf /data/CrossBreeder
  $MAGISKBIN/magisk --umountimg $MOUNTPATH $MAGISKLOOP
  rmdir $MOUNTPATH
  # Shrink the image if possible
  image_size_check $IMG
  newSizeM=$((curUsedM / 32 * 32 + 64))
  if [ $curSizeM -gt $newSizeM ]; then
    ui_print "- Shrinking $IMG to ${newSizeM}M"
    $MAGISKBIN/magisk --resizeimg $IMG $newSizeM
  fi
  $BOOTMODE || recovery_cleanup
  ui_print "- Done"
  exit 0
fi

###################################################

# Create mod paths
rm -rf $MODPATH 2>/dev/null
mkdir -p $MODPATH

# Copy files
ui_print "- Copying files"
mv $INSTALLER/system $MODPATH/system

###################################################

if [ "$ABILONG" = "arm64-v8a" ]; then
 SQLITE=arm64-v8a;
 BB=busybox_arm64;
 Install_for_ARM
elif [ "$ABILONG" = "armeabi-v7a" ]; then
 SQLITE=armeabi-v7a;
 BB=busybox_arm;
 Install_for_ARM
elif [ "$ABILONG" = "armeabi" ]; then
 SQLITE=armeabi;
 BB=busybox_arm;
 Install_for_ARM
elif [ "$ABILONG" = "x86_64" ]; then
 SQLITE=x86_64;
 BB=busybox_x86_64;
 Install_for_X86
elif [ "$ABILONG" = "x86" ]; then
 SQLITE=x86;
 BB=busybox_x86;
 Install_for_X86
else
 exit 0
fi

ui_print "- SQLITE3 can be $SQLITE"

if [ -f /system/bin/sqlite3 ]; then
 if [ ! -d $MODPATH/system/bin ]; then
  mkdir -p $MODPATH/system/bin
 fi
 cp -af $INSTALLER/common/$SQLITE $MODPATH/system/bin/sqlite3
fi

if [ -f /system/xbin/sqlite3 ]; then
 cp -af $INSTALLER/common/$SQLITE $MODPATH/system/xbin/sqlite3
fi

if [ ! -f $MODPATH/system/bin/sqlite3 ] && [ ! -f $MODPATH/system/xbin/sqlite3 ]; then
 cp -af $INSTALLER/common/$SQLITE $MODPATH/system/xbin/sqlite3
fi

ui_print "- Busybox can be $SQLITE"

cp -af $INSTALLER/common/$BB $MODPATH/system/bin/busybox

rm -rf /data/CrossBreeder
cp -rf $INSTALLER/common/CrossBreeder /data/CrossBreeder

###################################################

# Handle replace folders
for TARGET in $REPLACE; do
  mktouch $MODPATH$TARGET/.replace
done

# Auto Mount
$AUTOMOUNT && touch $MODPATH/auto_mount

# prop files
$PROPFILE && cp -af $INSTALLER/common/system.prop $MODPATH/system.prop

# Module info
cp -af $INSTALLER/module.prop $MODPATH/module.prop
if $BOOTMODE; then
  # Update info for Magisk Manager
  mktouch /magisk/$MODID/update
  cp -af $INSTALLER/module.prop /magisk/$MODID/module.prop
fi

# post-fs-data mode scripts
$POSTFSDATA && cp -af $INSTALLER/common/post-fs-data.sh $MODPATH/post-fs-data.sh

# service mode scripts
$LATESTARTSERVICE && cp -af $INSTALLER/common/service.sh $MODPATH/service.sh

ui_print "- Setting permissions"
set_permissions

##########################################################################################
# Finalizing
##########################################################################################

$MAGISKBIN/magisk --umountimg $MOUNTPATH $MAGISKLOOP
rmdir $MOUNTPATH

# Shrink the image if possible
image_size_check $IMG
newSizeM=$((curUsedM / 32 * 32 + 64))
if [ $curSizeM -gt $newSizeM ]; then
  ui_print "- Shrinking $IMG to ${newSizeM}M"
  $MAGISKBIN/magisk --resizeimg $IMG $newSizeM
fi

$BOOTMODE || recovery_cleanup

ui_print "- Done"
exit 0
